Version 4
SHEET 1 1708 916
WIRE -384 -80 -432 -80
WIRE 304 -80 -384 -80
WIRE 432 -80 304 -80
WIRE 688 -80 496 -80
WIRE 848 -80 688 -80
WIRE 1136 -80 912 -80
WIRE 1184 -80 1136 -80
WIRE 1296 -80 1184 -80
WIRE 304 -32 304 -80
WIRE 1296 32 1296 -80
WIRE 80 48 32 48
WIRE 208 48 160 48
WIRE 256 48 208 48
WIRE -432 96 -432 -80
WIRE 32 112 32 48
WIRE 32 112 -16 112
WIRE 1136 112 1136 -80
WIRE -192 128 -288 128
WIRE 304 144 304 64
WIRE 304 144 -16 144
WIRE 400 144 304 144
WIRE 496 144 400 144
WIRE 624 144 560 144
WIRE 688 144 688 -80
WIRE 688 144 624 144
WIRE -192 160 -240 160
WIRE 32 176 -16 176
WIRE 1296 176 1296 112
WIRE 304 192 304 144
WIRE -240 208 -240 160
WIRE -192 208 -240 208
WIRE 0 208 -16 208
WIRE 32 272 32 176
WIRE 80 272 32 272
WIRE 208 272 160 272
WIRE 256 272 208 272
WIRE 0 336 0 208
WIRE 304 336 304 288
WIRE 304 336 0 336
WIRE -432 400 -432 176
WIRE -240 400 -240 208
WIRE -240 400 -432 400
WIRE 304 400 304 336
WIRE 304 400 -240 400
WIRE 1136 400 1136 176
WIRE 1136 400 304 400
WIRE 1296 400 1296 256
WIRE 1296 400 1136 400
WIRE -432 448 -432 400
WIRE -288 592 -288 128
WIRE 224 592 -288 592
FLAG -432 448 0
FLAG -384 -80 in
FLAG 1184 -80 out
FLAG 400 144 sc+
FLAG 624 144 sc-
FLAG 208 272 g2
FLAG 208 48 g1
SYMBOL voltage -432 80 R0
WINDOW 0 38 38 Left 2
WINDOW 3 44 65 Left 2
SYMATTR InstName V1
SYMATTR Value 24
SYMBOL cap 560 128 R90
WINDOW 0 0 32 VBottom 2
WINDOW 3 32 32 VTop 2
SYMATTR InstName C1
SYMATTR Value 10µ
SYMBOL cap 1120 112 R0
SYMATTR InstName C2
SYMATTR Value 90µ
SYMBOL nmos 256 -32 R0
SYMATTR InstName M1
SYMATTR Value IRFZ48Z
SYMBOL nmos 256 192 R0
SYMATTR InstName M2
SYMATTR Value IRFZ48Z
SYMBOL MyDriverHB -80 160 R0
WINDOW 0 -89 -79 Bottom 2
WINDOW 38 18 -79 Bottom 2
WINDOW 123 -48 108 Bottom 2
WINDOW 3 -48 136 Bottom 2
SYMATTR InstName U1
SYMBOL res 176 32 R90
WINDOW 0 0 56 VBottom 2
WINDOW 3 32 56 VTop 2
SYMATTR InstName R2
SYMATTR Value 10
SYMBOL res 176 256 R90
WINDOW 0 0 56 VBottom 2
WINDOW 3 32 56 VTop 2
SYMATTR InstName R3
SYMATTR Value 10
SYMBOL Control\\idiode 848 -64 R270
WINDOW 3 -42 34 VTop 2
WINDOW 0 32 32 VTop 2
SYMATTR Value Vfwd=0.5 Ron=0.1
SYMATTR InstName U4
SYMBOL Control\\idiode 432 -64 R270
WINDOW 3 -38 44 VTop 2
WINDOW 0 32 32 VTop 2
SYMATTR Value Vfwd=0.5 Ron=0.1
SYMATTR InstName U5
SYMBOL res 1280 16 R0
SYMATTR InstName R1
SYMATTR Value 1.8
SYMBOL voltage 1296 160 R0
SYMATTR InstName V2
SYMATTR Value 41.8
SYMBOL Control\\clk 256 592 R180
WINDOW 3 -2 -66 Bottom 2
WINDOW 123 -2 -94 Bottom 2
WINDOW 39 -2 -122 Bottom 2
SYMATTR Value2 SR=1e8 ton={1/2/freq}
SYMATTR SpiceLine f={freq}
SYMATTR InstName U2
TEXT -16 -184 Left 2 !.tran 0 {80*1/freq} {70*1/freq} 10n uic
TEXT 584 -184 Left 2 !.options reltol 10m
TEXT -352 -184 Left 2 !.param freq=29.4k
TEXT 664 192 Left 2 !.measure Vout avg V(out)\n.measure Iout avg I(R1)\n.measure Vin avg V(in)\n.measure Iin avg -I(V1)\n.measure Pin param Vin*Iin\n.measure Pout param Vout*Iout\n.measure Eff param Pout*100/Pin
